<?xml version="1.0" encoding="UTF-8"?>

<!-- generated on 2025-01-26 22:27:41.081684 by randomTrips.py v1_21_0+0000-d7b3b481c43
<configuration>
    <net-file value="osm.net.xml.gz"/>
    <output-trip-file value="osm.truck.trips.xml"/>
    <route-file value="osm.truck.rou.xml"/>
    <prefix value="truck"/>
    <trip-attributes value="departLane=&quot;best&quot;"/>
    <fringe-start-attributes value="departSpeed=&quot;max&quot;"/>
    <vehicle-class value="truck"/>
    <fringe-factor value="5"/>
    <vclass value="truck"/>
    <via-edge-types value="highway.motorway,highway.motorway_link,highway.trunk_link,highway.primary_link,highway.secondary_link,highway.tertiary_link"/>
    <min-distance value="600.0"/>
    <min-distance.fringe value="10.0"/>
    <remove-loops value="True"/>
    <validate value="True"/>
    <insertion-density value="8.0"/>
</configuration>
-->

<!-- generated on 2025-01-26 22:27:41 by Eclipse SUMO duarouter Version 1.21.0
<duarouterConfiguration xmlns:xsi="http://www.w3.org/2001/XMLSchema-instance" xsi:noNamespaceSchemaLocation="http://sumo.dlr.de/xsd/duarouterConfiguration.xsd">

    <input>
        <net-file value="osm.net.xml.gz"/>
        <route-files value="osm.truck.trips.xml"/>
    </input>

    <output>
        <output-file value="osm.truck.trips.xml.tmp"/>
        <alternatives-output value="NUL"/>
        <write-trips value="true"/>
    </output>

    <processing>
        <remove-loops value="true"/>
    </processing>

    <time>
        <begin value="0.0"/>
        <end value="3600.0"/>
    </time>

    <report>
        <no-warnings value="true"/>
        <ignore-errors value="true"/>
        <no-step-log value="true"/>
    </report>

</duarouterConfiguration>
-->

<routes xmlns:xsi="http://www.w3.org/2001/XMLSchema-instance" xsi:noNamespaceSchemaLocation="http://sumo.dlr.de/xsd/routes_file.xsd">
    <vType id="truck_truck" vClass="truck"/>
    <trip id="truck0" type="truck_truck" depart="0.00" departLane="best" from="143870422#0" to="1126771718#0"/>
    <trip id="truck1" type="truck_truck" depart="30.43" departLane="best" departSpeed="max" from="141821921#1" to="13848342#1"/>
    <trip id="truck2" type="truck_truck" depart="60.86" departLane="best" from="24375730#1" to="1126771718#3"/>
    <trip id="truck3" type="truck_truck" depart="91.28" departLane="best" from="141821931" to="1126771718#0"/>
    <trip id="truck4" type="truck_truck" depart="121.71" departLane="best" departSpeed="max" from="141821921#1" to="1126771719"/>
    <trip id="truck5" type="truck_truck" depart="152.14" departLane="best" from="24375730#6" to="13848342#5"/>
    <trip id="truck6" type="truck_truck" depart="182.57" departLane="best" departSpeed="max" from="15491645#0" to="143870422#1"/>
    <trip id="truck8" type="truck_truck" depart="243.42" departLane="best" departSpeed="max" from="143870423" to="1126771718#1"/>
    <trip id="truck10" type="truck_truck" depart="304.28" departLane="best" from="141821921#2" to="13848342#0"/>
    <trip id="truck11" type="truck_truck" depart="334.71" departLane="best" departSpeed="max" from="141821921#1" to="13848342#4"/>
    <trip id="truck12" type="truck_truck" depart="365.14" departLane="best" from="24375730#0" to="13848342#5"/>
    <trip id="truck13" type="truck_truck" depart="395.56" departLane="best" departSpeed="max" from="15491645#0" to="141821922#6"/>
    <trip id="truck14" type="truck_truck" depart="425.99" departLane="best" departSpeed="max" from="1055297794" to="141821922#0"/>
    <trip id="truck17" type="truck_truck" depart="517.28" departLane="best" from="24375730#0" to="13848342#4"/>
    <trip id="truck19" type="truck_truck" depart="578.13" departLane="best" departSpeed="max" from="15491645#0" to="142047546#1"/>
    <trip id="truck20" type="truck_truck" depart="608.56" departLane="best" departSpeed="max" from="1055297794" to="566501599"/>
    <trip id="truck21" type="truck_truck" depart="638.99" departLane="best" departSpeed="max" from="141821921#1" to="1126771718#2"/>
    <trip id="truck22" type="truck_truck" depart="669.42" departLane="best" from="24375730#0" to="566501599"/>
    <trip id="truck23" type="truck_truck" depart="699.84" departLane="best" from="1061772991" to="141821922#6"/>
    <trip id="truck25" type="truck_truck" depart="760.70" departLane="best" from="141821931" to="13848342#1"/>
    <trip id="truck28" type="truck_truck" depart="851.98" departLane="best" from="141821922#0-AddedOnRampEdge" to="13848342#5"/>
    <trip id="truck29" type="truck_truck" depart="882.41" departLane="best" from="1126771720#0" to="141821922#6"/>
    <trip id="truck30" type="truck_truck" depart="912.84" departLane="best" from="141821931" to="13848342#5"/>
    <trip id="truck31" type="truck_truck" depart="943.27" departLane="best" from="142049043#3" to="1126771718#2"/>
    <trip id="truck32" type="truck_truck" depart="973.70" departLane="best" from="142047546#1" to="141821922#6"/>
    <trip id="truck33" type="truck_truck" depart="1004.12" departLane="best" from="142049043#0" to="24375730#4"/>
    <trip id="truck34" type="truck_truck" depart="1034.55" departLane="best" from="24375730#1" to="13848342#3"/>
    <trip id="truck36" type="truck_truck" depart="1095.41" departLane="best" departSpeed="max" from="141821921#1" to="143870422#2"/>
    <trip id="truck37" type="truck_truck" depart="1125.84" departLane="best" departSpeed="max" from="1055297794" to="141821922#6"/>
    <trip id="truck38" type="truck_truck" depart="1156.26" departLane="best" from="141821921#2" to="1126771719"/>
    <trip id="truck39" type="truck_truck" depart="1186.69" departLane="best" departSpeed="max" from="15491645#0" to="13848342#5"/>
    <trip id="truck40" type="truck_truck" depart="1217.12" departLane="best" from="141821931" to="13848342#5"/>
    <trip id="truck42" type="truck_truck" depart="1277.98" departLane="best" departSpeed="max" from="1055297794" to="24375730#6"/>
    <trip id="truck44" type="truck_truck" depart="1338.83" departLane="best" departSpeed="max" from="141821921#1" to="24375730#7"/>
    <trip id="truck46" type="truck_truck" depart="1399.69" departLane="best" departSpeed="max" from="141821921#1" to="566501599"/>
    <trip id="truck47" type="truck_truck" depart="1430.12" departLane="best" departSpeed="max" from="15491645#0" to="13848342#4"/>
    <trip id="truck48" type="truck_truck" depart="1460.54" departLane="best" from="24375730#6" to="13848342#5"/>
    <trip id="truck50" type="truck_truck" depart="1521.40" departLane="best" departSpeed="max" from="1055297794" to="566501599"/>
</routes>
