<?xml version="1.0" encoding="UTF-8"?>

<!-- generated on 2025-01-26 22:27:40.589612 by randomTrips.py v1_21_0+0000-d7b3b481c43
<configuration>
    <net-file value="osm.net.xml.gz"/>
    <output-trip-file value="osm.passenger.trips.xml"/>
    <route-file value="osm.passenger.rou.xml"/>
    <prefix value="veh"/>
    <trip-attributes value="departLane=&quot;best&quot;"/>
    <fringe-start-attributes value="departSpeed=&quot;max&quot;"/>
    <vehicle-class value="passenger"/>
    <lanes value="True"/>
    <fringe-factor value="5"/>
    <allow-fringe.min-length value="1000.0"/>
    <via-edge-types value="highway.motorway,highway.motorway_link,highway.trunk_link,highway.primary_link,highway.secondary_link,highway.tertiary_link"/>
    <min-distance value="300.0"/>
    <min-distance.fringe value="10.0"/>
    <remove-loops value="True"/>
    <validate value="True"/>
    <insertion-density value="12.0"/>
</configuration>
-->

<!-- generated on 2025-01-26 22:27:40 by Eclipse SUMO duarouter Version 1.21.0
<duarouterConfiguration xmlns:xsi="http://www.w3.org/2001/XMLSchema-instance" xsi:noNamespaceSchemaLocation="http://sumo.dlr.de/xsd/duarouterConfiguration.xsd">

    <input>
        <net-file value="osm.net.xml.gz"/>
        <route-files value="osm.passenger.trips.xml"/>
    </input>

    <output>
        <output-file value="osm.passenger.trips.xml.tmp"/>
        <alternatives-output value="NUL"/>
        <write-trips value="true"/>
    </output>

    <processing>
        <remove-loops value="true"/>
    </processing>

    <time>
        <begin value="0.0"/>
        <end value="3600.0"/>
    </time>

    <report>
        <no-warnings value="true"/>
        <ignore-errors value="true"/>
        <no-step-log value="true"/>
    </report>

</duarouterConfiguration>
-->

<routes xmlns:xsi="http://www.w3.org/2001/XMLSchema-instance" xsi:noNamespaceSchemaLocation="http://sumo.dlr.de/xsd/routes_file.xsd">
    <vType id="veh_passenger" vClass="passenger"/>

     <flow id="flow_west_to_south" type="veh_passenger" begin="0" end="3600" vehsPerHour="100" from="15491645#0" to="13848342#5"/>
    <flow id="flow_west_to_north" type="veh_passenger" begin="0" end="3600" vehsPerHour="100" from="15491645#0" to="141821922#6"/>
    <flow id="flow_west_to_east" type="veh_passenger" begin="0" end="3600" vehsPerHour="90" from="15491645#0" to="566501599"/>

    <flow id="flow_south_to_west" type="veh_passenger" begin="0" end="3600" vehsPerHour="300" from="142049043#0" to="1126771718#2"/>
    <flow id="flow_south_to_north" type="veh_passenger" begin="0" end="3600" vehsPerHour="200" from="142049043#0" to="141821922#6"/>
    <flow id="flow_south_to_east" type="veh_passenger" begin="0" end="3600" vehsPerHour="30" from="142049043#0" to="566501599"/>

    <flow id="flow_north_to_west" type="veh_passenger" begin="0" end="3600" vehsPerHour="300" from="141821921#1" to="1126771718#2"/>
    <flow id="flow_north_to_south" type="veh_passenger" begin="0" end="3600" vehsPerHour="250" from="141821921#1" to="13848342#5"/>
    <flow id="flow_north_to_east" type="veh_passenger" begin="0" end="3600" vehsPerHour="250" from="141821921#1" to="566501599"/>

    <flow id="flow_east_to_west" type="veh_passenger" begin="0" end="3600" vehsPerHour="250" from="143870423" to="1126771718#2"/>
    <flow id="flow_east_to_south" type="veh_passenger" begin="0" end="3600" vehsPerHour="200" from="143870423" to="13848342#5"/>
    <flow id="flow_east_to_north" type="veh_passenger" begin="0" end="3600" vehsPerHour="190" from="143870423" to="141821922#6"/>
</routes>

    